test/data/ieee_thirteen_bus_pq_top_right/result.csv
# result.csv run at 2000-01-01 00:00:00 EST on 33 powerflow objects (not all are nodes)
node_name,voltA_real,voltA_imag,voltB_real,voltB_imag,voltC_real,voltC_imag
n633,2530.112678,-13.609827,-1263.866463,-2162.289985,-1256.518525,2206.969617
n630,2551.881331,0.004815,-1260.925636,-2183.996674,-1283.450527,2222.990498
n632,2537.135365,-11.050963,-1264.496605,-2167.288150,-1259.653691,2212.053750
n650,2401.777100,0.000000,-1200.888600,-2080.000000,-1200.888600,2080.000000
l634,285.493565,-4.676781,-145.207385,-243.973164,-140.577891,251.394710
l6321,2537.933201,-10.954905,-1263.837409,-2165.924034,-1256.473486,2211.520676
